Circuit: * C:\Users\sahar\Documents\LTspiceXVII\AND.asc

Direct Newton iteration for .op point succeeded.

Date: Fri May 14 18:18:19 2021
Total elapsed time: 0.168 seconds.

tnom = 27
temp = 27
method = modified trap
totiter = 2096
traniter = 2082
tranpoints = 1042
accept = 1042
rejected = 0
matrix size = 9
fillins = 0
solver = Normal
Matrix Compiler1: 296 bytes object code size  0.1/0.1/[0.1]
Matrix Compiler2: 767 bytes object code size  0.1/0.1/[0.1]

