Circuit: * C:\Users\sahar\Documents\LTspiceXVII\Draft2.asc

Ignoring BSIM parameter XL
Ignoring BSIM parameter XW
Ignoring BSIM parameter XL
Ignoring BSIM parameter XW
WARNING: Node X1:X1:NC_01 is floating.
WARNING: Node X1:X2:NC_01 is floating.

Warning: Pd = 0 is less than W.
Warning: Ps = 0 is less than W.
Warning: Pd = 0 is less than W.
Warning: Ps = 0 is less than W.
Direct Newton iteration for .op point succeeded.

Date: Fri May 14 14:49:49 2021
Total elapsed time: 0.175 seconds.

tnom = 27
temp = 27
method = modified trap
totiter = 2099
traniter = 2082
tranpoints = 1042
accept = 1042
rejected = 0
matrix size = 35
fillins = 8
solver = Normal
Thread vector: 11.1/6.5[3] 8.4/3.6[3] 2.8/1.7[2] 0.2/3.6[1]  2592/500
Matrix Compiler1: 3.81 KB object code size  1.1/1.2/[0.2]
Matrix Compiler2: 4.28 KB object code size  1.3/0.8/[0.3]

