Circuit: * C:\Users\sahar\Documents\LTspiceXVII\Draft1.asc

Error on line 5 : vin n002 0 v
	 Unknown parameter "v"
Instance "m2": Length shorter than recommended for a level 1 MOSFET.
Instance "m1": Length shorter than recommended for a level 1 MOSFET.
Vin: Missing value, assumed 0V @ DC

Date: Tue May 11 07:54:06 2021
Total elapsed time: 0.135 seconds.

tnom = 27
temp = 27
method = trap
totiter = 2007
traniter = 0
tranpoints = 0
accept = 0
rejected = 0
matrix size = 5
fillins = 0
solver = Normal
Matrix Compiler1: 132 bytes object code size  0.0/0.0/[0.0]
Matrix Compiler2: 335 bytes object code size  0.1/0.1/[0.0]

