Circuit: * C:\Users\sahar\Documents\LTspiceXVII\Draft5.asc

Ignoring BSIM parameter XL
Ignoring BSIM parameter XW
Ignoring BSIM parameter XL
Ignoring BSIM parameter XW
Limiting rise time of source v2 to 0.05
Limiting fall time of source v2 to 0.05
Limiting rise time of source v1 to 0.1
Limiting fall time of source v1 to 0.1
Warning: Pd = 0 is less than W.
Warning: Ps = 0 is less than W.
Warning: Pd = 0 is less than W.
Warning: Ps = 0 is less than W.
Direct Newton iteration for .op point succeeded.

Date: Tue May 11 11:00:23 2021
Total elapsed time: 0.196 seconds.

tnom = 27
temp = 27
method = modified trap
totiter = 2361
traniter = 2344
tranpoints = 1138
accept = 1118
rejected = 20
matrix size = 8
fillins = 0
solver = Normal
Matrix Compiler1: 318 bytes object code size  0.1/0.1/[0.0]
Matrix Compiler2: off  [0.1]/0.2/0.1

