Circuit: * C:\Users\sahar\Documents\LTspiceXVII\FAT.asc

Direct Newton iteration for .op point succeeded.

Date: Thu Jun 03 17:09:31 2021
Total elapsed time: 0.541 seconds.

tnom = 27
temp = 27
method = modified trap
totiter = 11176
traniter = 11160
tranpoints = 2880
accept = 2434
rejected = 446
matrix size = 45
fillins = 60
solver = Normal
Thread vector: 21.1/11.0[3] 8.7/4.6[3] 2.5/3.9[1] 0.4/3.9[1]  2592/500
Matrix Compiler1: 10.57 KB object code size  2.5/1.4/[0.6]
Matrix Compiler2: 7.58 KB object code size  0.9/1.0/[0.5]

