Circuit: * C:\Users\sahar\Documents\LTspiceXVII\Full subtractor.asc

Ignoring BSIM parameter XL
Ignoring BSIM parameter XW
Ignoring BSIM parameter XL
Ignoring BSIM parameter XW
WARNING: Node X1:NC_01 is floating.
WARNING: Node X2:NC_01 is floating.

Warning: Pd = 0 is less than W.
Warning: Ps = 0 is less than W.
Warning: Pd = 0 is less than W.
Warning: Ps = 0 is less than W.
Direct Newton iteration for .op point succeeded.

Date: Fri May 14 14:46:36 2021
Total elapsed time: 0.212 seconds.

tnom = 27
temp = 27
method = modified trap
totiter = 2098
traniter = 2082
tranpoints = 1042
accept = 1042
rejected = 0
matrix size = 37
fillins = 6
solver = Normal
Thread vector: 11.1/7.8[3] 4.6/3.1[3] 1.4/1.9[1] 0.2/1.8[1]  2592/500
Matrix Compiler1: 3.87 KB object code size  0.9/0.6/[0.2]
Matrix Compiler2: 4.39 KB object code size  0.5/0.6/[0.3]

