Circuit: * C:\Users\sahar\Documents\LTspiceXVII\Full_adder.asc

Ignoring BSIM parameter XL
Ignoring BSIM parameter XW
Ignoring BSIM parameter XL
Ignoring BSIM parameter XW
Ignoring BSIM parameter XL
Ignoring BSIM parameter XW
Ignoring BSIM parameter XL
Ignoring BSIM parameter XW
Ignoring BSIM parameter XL
Ignoring BSIM parameter XW
Ignoring BSIM parameter XL
Ignoring BSIM parameter XW
Warning: Pd = 0 is less than W.
Warning: Ps = 0 is less than W.
Warning: Pd = 0 is less than W.
Warning: Ps = 0 is less than W.
Warning: Pd = 0 is less than W.
Warning: Ps = 0 is less than W.
Warning: Pd = 0 is less than W.
Warning: Ps = 0 is less than W.
Warning: Pd = 0 is less than W.
Warning: Ps = 0 is less than W.
Warning: Pd = 0 is less than W.
Warning: Ps = 0 is less than W.
Direct Newton iteration for .op point succeeded.

Date: Fri May 14 18:22:00 2021
Total elapsed time: 0.204 seconds.

tnom = 27
temp = 27
method = modified trap
totiter = 2131
traniter = 2082
tranpoints = 1042
accept = 1042
rejected = 0
matrix size = 33
fillins = 6
solver = Normal
Thread vector: 42.0/12.8[2] 4.3/3.3[2] 1.2/2.3[1] 0.1/3.6[1]  2592/500
Matrix Compiler1: 3.16 KB object code size  0.7/0.4/[0.2]
Matrix Compiler2: 3.81 KB object code size  0.3/0.7/[0.3]

