Circuit: * C:\Users\sahar\Documents\LTspiceXVII\OR.asc

Ignoring BSIM parameter XL
Ignoring BSIM parameter XW
Ignoring BSIM parameter XL
Ignoring BSIM parameter XW
Warning: Pd = 0 is less than W.
Warning: Ps = 0 is less than W.
Warning: Pd = 0 is less than W.
Warning: Ps = 0 is less than W.
Direct Newton iteration for .op point succeeded.

Date: Fri May 14 18:15:07 2021
Total elapsed time: 0.140 seconds.

tnom = 27
temp = 27
method = modified trap
totiter = 2098
traniter = 2082
tranpoints = 1042
accept = 1042
rejected = 0
matrix size = 9
fillins = 0
solver = Normal
Matrix Compiler1: 368 bytes object code size  0.1/0.1/[0.0]
Matrix Compiler2: 783 bytes object code size  0.1/0.1/[0.1]

