Circuit: * C:\Users\sahar\Documents\LTspiceXVII\TASK2_NOR.asc

Ignoring BSIM parameter XL
Ignoring BSIM parameter XW
Ignoring BSIM parameter XL
Ignoring BSIM parameter XW
Warning: Pd = 0 is less than W.
Warning: Ps = 0 is less than W.
Warning: Pd = 0 is less than W.
Warning: Ps = 0 is less than W.
Direct Newton iteration for .op point succeeded.

Date: Thu May 20 16:14:43 2021
Total elapsed time: 0.194 seconds.

tnom = 27
temp = 27
method = modified trap
totiter = 5750
traniter = 5741
tranpoints = 2355
accept = 2149
rejected = 206
matrix size = 8
fillins = 0
solver = Normal
Matrix Compiler1: 318 bytes object code size  0.1/0.1/[0.0]
Matrix Compiler2: 670 bytes object code size  0.1/0.1/[0.1]

