Circuit: * C:\Users\sahar\Documents\LTspiceXVII\Task_5.asc

Ignoring BSIM parameter XL
Ignoring BSIM parameter XW
Ignoring BSIM parameter XL
Ignoring BSIM parameter XW
Ignoring BSIM parameter XL
Ignoring BSIM parameter XW
Ignoring BSIM parameter XL
Ignoring BSIM parameter XW
Ignoring BSIM parameter XL
Ignoring BSIM parameter XW
Ignoring BSIM parameter XL
Ignoring BSIM parameter XW
Ignoring BSIM parameter XL
Ignoring BSIM parameter XW
Ignoring BSIM parameter XL
Ignoring BSIM parameter XW
Ignoring BSIM parameter XL
Ignoring BSIM parameter XW
Ignoring BSIM parameter XL
Ignoring BSIM parameter XW
Ignoring BSIM parameter XL
Ignoring BSIM parameter XW
Ignoring BSIM parameter XL
Ignoring BSIM parameter XW
Ignoring BSIM parameter XL
Ignoring BSIM parameter XW
Ignoring BSIM parameter XL
Ignoring BSIM parameter XW
Ignoring BSIM parameter XL
Ignoring BSIM parameter XW
Ignoring BSIM parameter XL
Ignoring BSIM parameter XW
Ignoring BSIM parameter XL
Ignoring BSIM parameter XW
Ignoring BSIM parameter XL
Ignoring BSIM parameter XW
Ignoring BSIM parameter XL
Ignoring BSIM parameter XW
Ignoring BSIM parameter XL
Ignoring BSIM parameter XW
Ignoring BSIM parameter XL
Ignoring BSIM parameter XW
Ignoring BSIM parameter XL
Ignoring BSIM parameter XW
Ignoring BSIM parameter XL
Ignoring BSIM parameter XW
Ignoring BSIM parameter XL
Ignoring BSIM parameter XW
Ignoring BSIM parameter XL
Ignoring BSIM parameter XW
Ignoring BSIM parameter XL
Ignoring BSIM parameter XW
Ignoring BSIM parameter XL
Ignoring BSIM parameter XW
Ignoring BSIM parameter XL
Ignoring BSIM parameter XW
Ignoring BSIM parameter XL
Ignoring BSIM parameter XW
Ignoring BSIM parameter XL
Ignoring BSIM parameter XW
Ignoring BSIM parameter XL
Ignoring BSIM parameter XW
Ignoring BSIM parameter XL
Ignoring BSIM parameter XW
Ignoring BSIM parameter XL
Ignoring BSIM parameter XW
Ignoring BSIM parameter XL
Ignoring BSIM parameter XW
Ignoring BSIM parameter XL
Ignoring BSIM parameter XW
Ignoring BSIM parameter XL
Ignoring BSIM parameter XW
Ignoring BSIM parameter XL
Ignoring BSIM parameter XW
Ignoring BSIM parameter XL
Ignoring BSIM parameter XW
Ignoring BSIM parameter XL
Ignoring BSIM parameter XW
Ignoring BSIM parameter XL
Ignoring BSIM parameter XW
Ignoring BSIM parameter XL
Ignoring BSIM parameter XW
Ignoring BSIM parameter XL
Ignoring BSIM parameter XW
Ignoring BSIM parameter XL
Ignoring BSIM parameter XW
Ignoring BSIM parameter XL
Ignoring BSIM parameter XW
Ignoring BSIM parameter XL
Ignoring BSIM parameter XW
Ignoring BSIM parameter XL
Ignoring BSIM parameter XW
Ignoring BSIM parameter XL
Ignoring BSIM parameter XW
Ignoring BSIM parameter XL
Ignoring BSIM parameter XW
Ignoring BSIM parameter XL
Ignoring BSIM parameter XW
Ignoring BSIM parameter XL
Ignoring BSIM parameter XW
Ignoring BSIM parameter XL
Ignoring BSIM parameter XW
Ignoring BSIM parameter XL
Ignoring BSIM parameter XW
Ignoring BSIM parameter XL
Ignoring BSIM parameter XW
Ignoring BSIM parameter XL
Ignoring BSIM parameter XW
Ignoring BSIM parameter XL
Ignoring BSIM parameter XW
Ignoring BSIM parameter XL
Ignoring BSIM parameter XW
Ignoring BSIM parameter XL
Ignoring BSIM parameter XW
Ignoring BSIM parameter XL
Ignoring BSIM parameter XW
Ignoring BSIM parameter XL
Ignoring BSIM parameter XW
Ignoring BSIM parameter XL
Ignoring BSIM parameter XW
Ignoring BSIM parameter XL
Ignoring BSIM parameter XW
Ignoring BSIM parameter XL
Ignoring BSIM parameter XW
Ignoring BSIM parameter XL
Ignoring BSIM parameter XW
Ignoring BSIM parameter XL
Ignoring BSIM parameter XW
Ignoring BSIM parameter XL
Ignoring BSIM parameter XW
Ignoring BSIM parameter XL
Ignoring BSIM parameter XW
Ignoring BSIM parameter XL
Ignoring BSIM parameter XW
Ignoring BSIM parameter XL
Ignoring BSIM parameter XW
Ignoring BSIM parameter XL
Ignoring BSIM parameter XW
Ignoring BSIM parameter XL
Ignoring BSIM parameter XW
Ignoring BSIM parameter XL
Ignoring BSIM parameter XW
Ignoring BSIM parameter XL
Ignoring BSIM parameter XW
Warning: Pd = 0 is less than W.
Warning: Ps = 0 is less than W.
Warning: Pd = 0 is less than W.
Warning: Ps = 0 is less than W.
Warning: Pd = 0 is less than W.
Warning: Ps = 0 is less than W.
Warning: Pd = 0 is less than W.
Warning: Ps = 0 is less than W.
Warning: Pd = 0 is less than W.
Warning: Ps = 0 is less than W.
Warning: Pd = 0 is less than W.
Warning: Ps = 0 is less than W.
Warning: Pd = 0 is less than W.
Warning: Ps = 0 is less than W.
Warning: Pd = 0 is less than W.
Warning: Ps = 0 is less than W.
Warning: Pd = 0 is less than W.
Warning: Ps = 0 is less than W.
Warning: Pd = 0 is less than W.
Warning: Ps = 0 is less than W.
Warning: Pd = 0 is less than W.
Warning: Ps = 0 is less than W.
Warning: Pd = 0 is less than W.
Warning: Ps = 0 is less than W.
Warning: Pd = 0 is less than W.
Warning: Ps = 0 is less than W.
Warning: Pd = 0 is less than W.
Warning: Ps = 0 is less than W.
Warning: Pd = 0 is less than W.
Warning: Ps = 0 is less than W.
Warning: Pd = 0 is less than W.
Warning: Ps = 0 is less than W.
Warning: Pd = 0 is less than W.
Warning: Ps = 0 is less than W.
Warning: Pd = 0 is less than W.
Warning: Ps = 0 is less than W.
Warning: Pd = 0 is less than W.
Warning: Ps = 0 is less than W.
Warning: Pd = 0 is less than W.
Warning: Ps = 0 is less than W.
Warning: Pd = 0 is less than W.
Warning: Ps = 0 is less than W.
Warning: Pd = 0 is less than W.
Warning: Ps = 0 is less than W.
Warning: Pd = 0 is less than W.
Warning: Ps = 0 is less than W.
Warning: Pd = 0 is less than W.
Warning: Ps = 0 is less than W.
Warning: Pd = 0 is less than W.
Warning: Ps = 0 is less than W.
Warning: Pd = 0 is less than W.
Warning: Ps = 0 is less than W.
Warning: Pd = 0 is less than W.
Warning: Ps = 0 is less than W.
Warning: Pd = 0 is less than W.
Warning: Ps = 0 is less than W.
Warning: Pd = 0 is less than W.
Warning: Ps = 0 is less than W.
Warning: Pd = 0 is less than W.
Warning: Ps = 0 is less than W.
Warning: Pd = 0 is less than W.
Warning: Ps = 0 is less than W.
Warning: Pd = 0 is less than W.
Warning: Ps = 0 is less than W.
Warning: Pd = 0 is less than W.
Warning: Ps = 0 is less than W.
Warning: Pd = 0 is less than W.
Warning: Ps = 0 is less than W.
Warning: Pd = 0 is less than W.
Warning: Ps = 0 is less than W.
Warning: Pd = 0 is less than W.
Warning: Ps = 0 is less than W.
Warning: Pd = 0 is less than W.
Warning: Ps = 0 is less than W.
Warning: Pd = 0 is less than W.
Warning: Ps = 0 is less than W.
Warning: Pd = 0 is less than W.
Warning: Ps = 0 is less than W.
Warning: Pd = 0 is less than W.
Warning: Ps = 0 is less than W.
Warning: Pd = 0 is less than W.
Warning: Ps = 0 is less than W.
Warning: Pd = 0 is less than W.
Warning: Ps = 0 is less than W.
Warning: Pd = 0 is less than W.
Warning: Ps = 0 is less than W.
Warning: Pd = 0 is less than W.
Warning: Ps = 0 is less than W.
Warning: Pd = 0 is less than W.
Warning: Ps = 0 is less than W.
Warning: Pd = 0 is less than W.
Warning: Ps = 0 is less than W.
Warning: Pd = 0 is less than W.
Warning: Ps = 0 is less than W.
Warning: Pd = 0 is less than W.
Warning: Ps = 0 is less than W.
Warning: Pd = 0 is less than W.
Warning: Ps = 0 is less than W.
Warning: Pd = 0 is less than W.
Warning: Ps = 0 is less than W.
Warning: Pd = 0 is less than W.
Warning: Ps = 0 is less than W.
Warning: Pd = 0 is less than W.
Warning: Ps = 0 is less than W.
Warning: Pd = 0 is less than W.
Warning: Ps = 0 is less than W.
Warning: Pd = 0 is less than W.
Warning: Ps = 0 is less than W.
Warning: Pd = 0 is less than W.
Warning: Ps = 0 is less than W.
Warning: Pd = 0 is less than W.
Warning: Ps = 0 is less than W.
Warning: Pd = 0 is less than W.
Warning: Ps = 0 is less than W.
Warning: Pd = 0 is less than W.
Warning: Ps = 0 is less than W.
Warning: Pd = 0 is less than W.
Warning: Ps = 0 is less than W.
Warning: Pd = 0 is less than W.
Warning: Ps = 0 is less than W.
Warning: Pd = 0 is less than W.
Warning: Ps = 0 is less than W.
Warning: Pd = 0 is less than W.
Warning: Ps = 0 is less than W.
Warning: Pd = 0 is less than W.
Warning: Ps = 0 is less than W.
Warning: Pd = 0 is less than W.
Warning: Ps = 0 is less than W.
Warning: Pd = 0 is less than W.
Warning: Ps = 0 is less than W.
Warning: Pd = 0 is less than W.
Warning: Ps = 0 is less than W.
Warning: Pd = 0 is less than W.
Warning: Ps = 0 is less than W.
Warning: Pd = 0 is less than W.
Warning: Ps = 0 is less than W.
Warning: Pd = 0 is less than W.
Warning: Ps = 0 is less than W.
Warning: Pd = 0 is less than W.
Warning: Ps = 0 is less than W.
Warning: Pd = 0 is less than W.
Warning: Ps = 0 is less than W.
Warning: Pd = 0 is less than W.
Warning: Ps = 0 is less than W.
Direct Newton iteration failed to find .op point.  (Use ".option noopiter" to skip.)
Starting Gmin stepping
Gmin = 10
Gmin = 1.07374
Gmin = 0.115292
Gmin = 0.0123794
Gmin = 0.00132923
Gmin = 0.000142725
Gmin = 1.5325e-005
Gmin = 1.6455e-006
Gmin = 1.76685e-007
Gmin = 1.89714e-008
Gmin = 2.03704e-009
Gmin = 2.18725e-010
Gmin = 2.34854e-011
Gmin = 2.52173e-012
Gmin = 2.70769e-013
Gmin = 0
Gmin stepping succeeded in finding the operating point.

Semiconductor Device Operating Points:
                        --- BSIM3 MOSFETS ---
Name:     m:x4:x9:4   m:x4:x9:3   m:x4:x9:2   m:x4:x9:1   m:x4:x8:4
Model:   x4:x9:cmosn x4:x9:cmosn x4:x9:cmosp x4:x9:cmosp x4:x8:cmosn
Id:        1.00e-11    1.00e-11    3.21e-12    3.21e-12    9.67e-12
Vgs:       1.80e+00    1.80e+00    1.80e+00    1.80e+00    1.80e+00
Vds:       2.89e-08    2.89e-08    1.80e+00    1.80e+00    2.78e-08
Vbs:       0.00e+00   -2.89e-08    1.80e+00    1.80e+00    0.00e+00
Vth:       3.75e-01    3.75e-01   -3.92e-01   -3.92e-01    3.75e-01
Vdsat:     1.11e+00    1.11e+00   -3.31e-02   -3.31e-02    1.11e+00
Gm:        4.02e-12    4.02e-12    8.42e-11    8.42e-11    3.87e-12
Gds:       3.48e-04    3.48e-04    3.13e-13    3.13e-13    3.48e-04
Gmb        2.77e-12    2.77e-12    3.13e-11    3.13e-11    2.67e-12
Cbd:       0.00e+00    0.00e+00    0.00e+00    0.00e+00    0.00e+00
Cbs:       0.00e+00    0.00e+00    0.00e+00    0.00e+00    0.00e+00
Cgsov:     4.12e-15    4.12e-15    3.18e-15    3.18e-15    4.12e-15
Cgdov:     4.12e-15    4.12e-15    3.18e-15    3.18e-15    4.12e-15
Cgbov:     4.97e-18    4.97e-18    4.94e-18    4.94e-18    4.97e-18
dQgdVgb:   2.18e-13    2.18e-13    6.25e-14    6.25e-14    2.18e-13
dQgdVdb:  -1.06e-13   -1.06e-13   -3.17e-15   -3.17e-15   -1.06e-13
dQgdVsb:  -1.12e-13   -1.12e-13   -3.18e-15   -3.18e-15   -1.12e-13
dQddVgb:  -1.09e-13   -1.09e-13   -3.18e-15   -3.18e-15   -1.09e-13
dQddVdb:   9.45e-14    9.45e-14    3.17e-15    3.17e-15    9.45e-14
dQddVsb:   4.74e-14    4.74e-14    3.15e-18    3.15e-18    4.74e-14
dQbdVgb:  -4.05e-16   -4.05e-16   -5.62e-14   -5.62e-14   -4.05e-16
dQbdVdb:  -7.89e-14   -7.89e-14    1.85e-21    1.85e-21   -7.89e-14
dQbdVsb:   1.28e-14    1.28e-14    7.67e-19    7.67e-19    1.28e-14

Name:     m:x4:x8:3   m:x4:x8:2   m:x4:x8:1   m:x4:x7:4   m:x4:x7:3
Model:   x4:x8:cmosn x4:x8:cmosp x4:x8:cmosp x4:x7:cmosn x4:x7:cmosn
Id:        1.15e-11    1.15e-11    1.90e-17    1.09e-11    1.41e-11
Vgs:       2.99e-08   -1.80e+00   -3.51e-08    5.78e-08    3.77e-01
Vds:       1.80e+00    1.53e-07    1.53e-07    1.42e+00    3.77e-01
Vbs:      -2.78e-08    1.53e-07    1.53e-07    0.00e+00   -1.42e+00
Vth:       3.73e-01   -3.97e-01   -3.97e-01    3.74e-01    7.19e-01
Vdsat:     3.19e-02   -1.15e+00   -3.31e-02    3.19e-02    3.84e-02
Gm:        2.68e-10    5.95e-12    5.00e-16    2.62e-10    3.82e-10
Gds:       6.06e-13    7.52e-05    1.25e-10    5.97e-13    9.42e-13
Gmb        9.38e-11    3.72e-12    1.89e-16    9.16e-11    7.76e-11
Cbd:       0.00e+00    0.00e+00    0.00e+00    0.00e+00    0.00e+00
Cbs:       0.00e+00    0.00e+00    0.00e+00    0.00e+00    0.00e+00
Cgsov:     4.12e-15    3.18e-15    3.18e-15    4.12e-15    4.12e-15
Cgdov:     4.12e-15    3.18e-15    3.18e-15    4.12e-15    4.12e-15
Cgbov:     4.97e-18    4.94e-18    4.94e-18    4.97e-18    4.97e-18
dQgdVgb:   6.86e-14    2.15e-13    6.25e-14    6.86e-14    4.46e-14
dQgdVdb:  -4.11e-15   -1.04e-13   -3.18e-15   -4.11e-15   -4.11e-15
dQgdVsb:  -4.12e-15   -1.16e-13   -3.18e-15   -4.12e-15   -4.12e-15
dQddVgb:  -4.12e-15   -1.07e-13   -3.18e-15   -4.12e-15   -4.12e-15
dQddVdb:   4.11e-15    8.98e-14    3.18e-15    4.11e-15    4.11e-15
dQddVsb:   3.03e-18    5.06e-14    1.36e-18    3.00e-18    2.01e-18
dQbdVgb:  -6.03e-14   -4.09e-16   -5.62e-14   -6.03e-14   -3.63e-14
dQbdVdb:   8.60e-22   -7.20e-14   -2.39e-18    8.42e-22   -9.11e-23
dQbdVsb:   8.37e-19    1.16e-14    2.09e-18    8.49e-19    9.47e-19

Name:     m:x4:x7:2   m:x4:x7:1   m:x4:x6:4   m:x4:x6:3   m:x4:x6:2
Model:   x4:x7:cmosp x4:x7:cmosp x4:x6:cmosn x4:x6:cmosn x4:x6:cmosp
Id:        2.34e-17    1.41e-11    1.09e-11    1.41e-11    2.34e-17
Vgs:       0.00e+00   -1.80e+00    5.78e-08    3.77e-01   -8.88e-16
Vds:       1.88e-07    1.88e-07    1.42e+00    3.77e-01    1.88e-07
Vbs:       1.88e-07    1.88e-07    0.00e+00   -1.42e+00    1.88e-07
Vth:      -3.97e-01   -3.97e-01    3.74e-01    7.19e-01   -3.97e-01
Vdsat:    -3.31e-02   -1.15e+00    3.19e-02    3.84e-02   -3.31e-02
Gm:        6.15e-16    7.32e-12    2.62e-10    3.82e-10    6.15e-16
Gds:       1.25e-10    7.52e-05    5.97e-13    9.42e-13    1.25e-10
Gmb        2.33e-16    4.58e-12    9.16e-11    7.76e-11    2.33e-16
Cbd:       0.00e+00    0.00e+00    0.00e+00    0.00e+00    0.00e+00
Cbs:       0.00e+00    0.00e+00    0.00e+00    0.00e+00    0.00e+00
Cgsov:     3.18e-15    3.18e-15    4.12e-15    4.12e-15    3.18e-15
Cgdov:     3.18e-15    3.18e-15    4.12e-15    4.12e-15    3.18e-15
Cgbov:     4.94e-18    4.94e-18    4.97e-18    4.97e-18    4.94e-18
dQgdVgb:   6.25e-14    2.15e-13    6.86e-14    4.46e-14    6.25e-14
dQgdVdb:  -3.18e-15   -1.04e-13   -4.11e-15   -4.11e-15   -3.18e-15
dQgdVsb:  -3.18e-15   -1.16e-13   -4.12e-15   -4.12e-15   -3.18e-15
dQddVgb:  -3.18e-15   -1.07e-13   -4.12e-15   -4.12e-15   -3.18e-15
dQddVdb:   3.18e-15    8.98e-14    4.11e-15    4.11e-15    3.18e-15
dQddVsb:   1.36e-18    5.06e-14    3.00e-18    2.01e-18    1.36e-18
dQbdVgb:  -5.62e-14   -4.09e-16   -6.03e-14   -3.63e-14   -5.62e-14
dQbdVdb:  -2.39e-18   -7.20e-14    8.42e-22   -9.11e-23   -2.39e-18
dQbdVsb:   2.09e-18    1.16e-14    8.49e-19    9.47e-19    2.09e-18

Name:     m:x4:x6:1   m:x4:x5:4   m:x4:x5:3   m:x4:x5:2   m:x4:x5:1
Model:   x4:x6:cmosp x4:x5:cmosn x4:x5:cmosn x4:x5:cmosp x4:x5:cmosp
Id:        1.41e-11    1.00e-11    1.00e-11    3.21e-12    3.21e-12
Vgs:      -1.80e+00    1.80e+00    1.80e+00    1.80e+00    1.80e+00
Vds:       1.88e-07    2.89e-08    2.89e-08    1.80e+00    1.80e+00
Vbs:       1.88e-07    0.00e+00   -2.89e-08    1.80e+00    1.80e+00
Vth:      -3.97e-01    3.75e-01    3.75e-01   -3.92e-01   -3.92e-01
Vdsat:    -1.15e+00    1.11e+00    1.11e+00   -3.31e-02   -3.31e-02
Gm:        7.32e-12    4.02e-12    4.02e-12    8.42e-11    8.42e-11
Gds:       7.52e-05    3.48e-04    3.48e-04    3.13e-13    3.13e-13
Gmb        4.58e-12    2.77e-12    2.77e-12    3.13e-11    3.13e-11
Cbd:       0.00e+00    0.00e+00    0.00e+00    0.00e+00    0.00e+00
Cbs:       0.00e+00    0.00e+00    0.00e+00    0.00e+00    0.00e+00
Cgsov:     3.18e-15    4.12e-15    4.12e-15    3.18e-15    3.18e-15
Cgdov:     3.18e-15    4.12e-15    4.12e-15    3.18e-15    3.18e-15
Cgbov:     4.94e-18    4.97e-18    4.97e-18    4.94e-18    4.94e-18
dQgdVgb:   2.15e-13    2.18e-13    2.18e-13    6.25e-14    6.25e-14
dQgdVdb:  -1.04e-13   -1.06e-13   -1.06e-13   -3.17e-15   -3.17e-15
dQgdVsb:  -1.16e-13   -1.12e-13   -1.12e-13   -3.18e-15   -3.18e-15
dQddVgb:  -1.07e-13   -1.09e-13   -1.09e-13   -3.18e-15   -3.18e-15
dQddVdb:   8.98e-14    9.45e-14    9.45e-14    3.17e-15    3.17e-15
dQddVsb:   5.06e-14    4.74e-14    4.74e-14    3.15e-18    3.15e-18
dQbdVgb:  -4.09e-16   -4.05e-16   -4.05e-16   -5.62e-14   -5.62e-14
dQbdVdb:  -7.20e-14   -7.89e-14   -7.89e-14    1.85e-21    1.85e-21
dQbdVsb:   1.16e-14    1.28e-14    1.28e-14    7.67e-19    7.67e-19

Name:     m:x4:x4:4   m:x4:x4:3   m:x4:x4:2   m:x4:x4:1   m:x4:x3:4
Model:   x4:x4:cmosn x4:x4:cmosn x4:x4:cmosp x4:x4:cmosp x4:x3:cmosn
Id:        1.09e-11    1.41e-11    2.34e-17    1.41e-11    1.00e-11
Vgs:       5.78e-08    3.77e-01    3.51e-08   -1.80e+00    1.80e+00
Vds:       1.42e+00    3.77e-01    1.88e-07    1.88e-07    2.89e-08
Vbs:       0.00e+00   -1.42e+00    1.88e-07    1.88e-07    0.00e+00
Vth:       3.74e-01    7.19e-01   -3.97e-01   -3.97e-01    3.75e-01
Vdsat:     3.19e-02    3.84e-02   -3.31e-02   -1.15e+00    1.11e+00
Gm:        2.62e-10    3.82e-10    6.15e-16    7.32e-12    4.02e-12
Gds:       5.97e-13    9.42e-13    1.25e-10    7.52e-05    3.48e-04
Gmb        9.16e-11    7.76e-11    2.33e-16    4.58e-12    2.77e-12
Cbd:       0.00e+00    0.00e+00    0.00e+00    0.00e+00    0.00e+00
Cbs:       0.00e+00    0.00e+00    0.00e+00    0.00e+00    0.00e+00
Cgsov:     4.12e-15    4.12e-15    3.18e-15    3.18e-15    4.12e-15
Cgdov:     4.12e-15    4.12e-15    3.18e-15    3.18e-15    4.12e-15
Cgbov:     4.97e-18    4.97e-18    4.94e-18    4.94e-18    4.97e-18
dQgdVgb:   6.86e-14    4.46e-14    6.25e-14    2.15e-13    2.18e-13
dQgdVdb:  -4.11e-15   -4.11e-15   -3.18e-15   -1.04e-13   -1.06e-13
dQgdVsb:  -4.12e-15   -4.12e-15   -3.18e-15   -1.16e-13   -1.12e-13
dQddVgb:  -4.12e-15   -4.12e-15   -3.18e-15   -1.07e-13   -1.09e-13
dQddVdb:   4.11e-15    4.11e-15    3.18e-15    8.98e-14    9.45e-14
dQddVsb:   3.00e-18    2.01e-18    1.36e-18    5.06e-14    4.74e-14
dQbdVgb:  -6.03e-14   -3.63e-14   -5.62e-14   -4.09e-16   -4.05e-16
dQbdVdb:   8.42e-22   -9.11e-23   -2.39e-18   -7.20e-14   -7.89e-14
dQbdVsb:   8.49e-19    9.47e-19    2.09e-18    1.16e-14    1.28e-14

Name:     m:x4:x3:3   m:x4:x3:2   m:x4:x3:1   m:x4:x2:4   m:x4:x2:3
Model:   x4:x3:cmosn x4:x3:cmosp x4:x3:cmosp x4:x2:cmosn x4:x2:cmosn
Id:        1.00e-11    3.21e-12    3.21e-12    9.67e-12    1.15e-11
Vgs:       1.80e+00    1.80e+00    1.80e+00    1.80e+00   -2.78e-08
Vds:       2.89e-08    1.80e+00    1.80e+00    2.78e-08    1.80e+00
Vbs:      -2.89e-08    1.80e+00    1.80e+00    0.00e+00   -2.78e-08
Vth:       3.75e-01   -3.92e-01   -3.92e-01    3.75e-01    3.73e-01
Vdsat:     1.11e+00   -3.31e-02   -3.31e-02    1.11e+00    3.19e-02
Gm:        4.02e-12    8.42e-11    8.42e-11    3.87e-12    2.68e-10
Gds:       3.48e-04    3.13e-13    3.13e-13    3.48e-04    6.06e-13
Gmb        2.77e-12    3.13e-11    3.13e-11    2.67e-12    9.38e-11
Cbd:       0.00e+00    0.00e+00    0.00e+00    0.00e+00    0.00e+00
Cbs:       0.00e+00    0.00e+00    0.00e+00    0.00e+00    0.00e+00
Cgsov:     4.12e-15    3.18e-15    3.18e-15    4.12e-15    4.12e-15
Cgdov:     4.12e-15    3.18e-15    3.18e-15    4.12e-15    4.12e-15
Cgbov:     4.97e-18    4.94e-18    4.94e-18    4.97e-18    4.97e-18
dQgdVgb:   2.18e-13    6.25e-14    6.25e-14    2.18e-13    6.86e-14
dQgdVdb:  -1.06e-13   -3.17e-15   -3.17e-15   -1.06e-13   -4.11e-15
dQgdVsb:  -1.12e-13   -3.18e-15   -3.18e-15   -1.12e-13   -4.12e-15
dQddVgb:  -1.09e-13   -3.18e-15   -3.18e-15   -1.09e-13   -4.12e-15
dQddVdb:   9.45e-14    3.17e-15    3.17e-15    9.45e-14    4.11e-15
dQddVsb:   4.74e-14    3.15e-18    3.15e-18    4.74e-14    3.03e-18
dQbdVgb:  -4.05e-16   -5.62e-14   -5.62e-14   -4.05e-16   -6.03e-14
dQbdVdb:  -7.89e-14    1.85e-21    1.85e-21   -7.89e-14    8.60e-22
dQbdVsb:   1.28e-14    7.67e-19    7.67e-19    1.28e-14    8.37e-19

Name:     m:x4:x2:2   m:x4:x2:1   m:x4:x1:4   m:x4:x1:3   m:x4:x1:2
Model:   x4:x2:cmosp x4:x2:cmosp x4:x1:cmosn x4:x1:cmosn x4:x1:cmosp
Id:        1.15e-11    1.90e-17    9.67e-12    1.15e-11    1.15e-11
Vgs:      -1.80e+00    1.53e-07    1.80e+00   -2.78e-08   -1.80e+00
Vds:       1.53e-07    1.53e-07    2.78e-08    1.80e+00    1.53e-07
Vbs:       1.53e-07    1.53e-07    0.00e+00   -2.78e-08    1.53e-07
Vth:      -3.97e-01   -3.97e-01    3.75e-01    3.73e-01   -3.97e-01
Vdsat:    -1.15e+00   -3.31e-02    1.11e+00    3.19e-02   -1.15e+00
Gm:        5.95e-12    5.00e-16    3.87e-12    2.68e-10    5.95e-12
Gds:       7.52e-05    1.25e-10    3.48e-04    6.06e-13    7.52e-05
Gmb        3.72e-12    1.89e-16    2.67e-12    9.38e-11    3.72e-12
Cbd:       0.00e+00    0.00e+00    0.00e+00    0.00e+00    0.00e+00
Cbs:       0.00e+00    0.00e+00    0.00e+00    0.00e+00    0.00e+00
Cgsov:     3.18e-15    3.18e-15    4.12e-15    4.12e-15    3.18e-15
Cgdov:     3.18e-15    3.18e-15    4.12e-15    4.12e-15    3.18e-15
Cgbov:     4.94e-18    4.94e-18    4.97e-18    4.97e-18    4.94e-18
dQgdVgb:   2.15e-13    6.25e-14    2.18e-13    6.86e-14    2.15e-13
dQgdVdb:  -1.04e-13   -3.18e-15   -1.06e-13   -4.11e-15   -1.04e-13
dQgdVsb:  -1.16e-13   -3.18e-15   -1.12e-13   -4.12e-15   -1.16e-13
dQddVgb:  -1.07e-13   -3.18e-15   -1.09e-13   -4.12e-15   -1.07e-13
dQddVdb:   8.98e-14    3.18e-15    9.45e-14    4.11e-15    8.98e-14
dQddVsb:   5.06e-14    1.36e-18    4.74e-14    3.03e-18    5.06e-14
dQbdVgb:  -4.09e-16   -5.62e-14   -4.05e-16   -6.03e-14   -4.09e-16
dQbdVdb:  -7.20e-14   -2.39e-18   -7.89e-14    8.60e-22   -7.20e-14
dQbdVsb:   1.16e-14    2.09e-18    1.28e-14    8.37e-19    1.16e-14

Name:     m:x4:x1:1   m:x3:x9:4   m:x3:x9:3   m:x3:x9:2   m:x3:x9:1
Model:   x4:x1:cmosp x3:x9:cmosn x3:x9:cmosn x3:x9:cmosp x3:x9:cmosp
Id:        1.90e-17    1.00e-11    1.00e-11    3.21e-12    3.21e-12
Vgs:       2.22e-16    1.80e+00    1.80e+00    1.80e+00    1.80e+00
Vds:       1.53e-07    2.89e-08    2.89e-08    1.80e+00    1.80e+00
Vbs:       1.53e-07    0.00e+00   -2.89e-08    1.80e+00    1.80e+00
Vth:      -3.97e-01    3.75e-01    3.75e-01   -3.92e-01   -3.92e-01
Vdsat:    -3.31e-02    1.11e+00    1.11e+00   -3.31e-02   -3.31e-02
Gm:        5.00e-16    4.02e-12    4.02e-12    8.42e-11    8.42e-11
Gds:       1.25e-10    3.48e-04    3.48e-04    3.13e-13    3.13e-13
Gmb        1.89e-16    2.77e-12    2.77e-12    3.13e-11    3.13e-11
Cbd:       0.00e+00    0.00e+00    0.00e+00    0.00e+00    0.00e+00
Cbs:       0.00e+00    0.00e+00    0.00e+00    0.00e+00    0.00e+00
Cgsov:     3.18e-15    4.12e-15    4.12e-15    3.18e-15    3.18e-15
Cgdov:     3.18e-15    4.12e-15    4.12e-15    3.18e-15    3.18e-15
Cgbov:     4.94e-18    4.97e-18    4.97e-18    4.94e-18    4.94e-18
dQgdVgb:   6.25e-14    2.18e-13    2.18e-13    6.25e-14    6.25e-14
dQgdVdb:  -3.18e-15   -1.06e-13   -1.06e-13   -3.17e-15   -3.17e-15
dQgdVsb:  -3.18e-15   -1.12e-13   -1.12e-13   -3.18e-15   -3.18e-15
dQddVgb:  -3.18e-15   -1.09e-13   -1.09e-13   -3.18e-15   -3.18e-15
dQddVdb:   3.18e-15    9.45e-14    9.45e-14    3.17e-15    3.17e-15
dQddVsb:   1.36e-18    4.74e-14    4.74e-14    3.15e-18    3.15e-18
dQbdVgb:  -5.62e-14   -4.05e-16   -4.05e-16   -5.62e-14   -5.62e-14
dQbdVdb:  -2.39e-18   -7.89e-14   -7.89e-14    1.85e-21    1.85e-21
dQbdVsb:   2.09e-18    1.28e-14    1.28e-14    7.67e-19    7.67e-19

Name:     m:x3:x8:4   m:x3:x8:3   m:x3:x8:2   m:x3:x8:1   m:x3:x7:4
Model:   x3:x8:cmosn x3:x8:cmosn x3:x8:cmosp x3:x8:cmosp x3:x7:cmosn
Id:        9.67e-12    1.15e-11    1.15e-11    1.90e-17    1.09e-11
Vgs:       1.80e+00    2.99e-08   -1.80e+00   -3.51e-08    5.78e-08
Vds:       2.78e-08    1.80e+00    1.53e-07    1.53e-07    1.42e+00
Vbs:       0.00e+00   -2.78e-08    1.53e-07    1.53e-07    0.00e+00
Vth:       3.75e-01    3.73e-01   -3.97e-01   -3.97e-01    3.74e-01
Vdsat:     1.11e+00    3.19e-02   -1.15e+00   -3.31e-02    3.19e-02
Gm:        3.87e-12    2.68e-10    5.95e-12    5.00e-16    2.62e-10
Gds:       3.48e-04    6.06e-13    7.52e-05    1.25e-10    5.97e-13
Gmb        2.67e-12    9.38e-11    3.72e-12    1.89e-16    9.16e-11
Cbd:       0.00e+00    0.00e+00    0.00e+00    0.00e+00    0.00e+00
Cbs:       0.00e+00    0.00e+00    0.00e+00    0.00e+00    0.00e+00
Cgsov:     4.12e-15    4.12e-15    3.18e-15    3.18e-15    4.12e-15
Cgdov:     4.12e-15    4.12e-15    3.18e-15    3.18e-15    4.12e-15
Cgbov:     4.97e-18    4.97e-18    4.94e-18    4.94e-18    4.97e-18
dQgdVgb:   2.18e-13    6.86e-14    2.15e-13    6.25e-14    6.86e-14
dQgdVdb:  -1.06e-13   -4.11e-15   -1.04e-13   -3.18e-15   -4.11e-15
dQgdVsb:  -1.12e-13   -4.12e-15   -1.16e-13   -3.18e-15   -4.12e-15
dQddVgb:  -1.09e-13   -4.12e-15   -1.07e-13   -3.18e-15   -4.12e-15
dQddVdb:   9.45e-14    4.11e-15    8.98e-14    3.18e-15    4.11e-15
dQddVsb:   4.74e-14    3.03e-18    5.06e-14    1.36e-18    3.00e-18
dQbdVgb:  -4.05e-16   -6.03e-14   -4.09e-16   -5.62e-14   -6.03e-14
dQbdVdb:  -7.89e-14    8.60e-22   -7.20e-14   -2.39e-18    8.42e-22
dQbdVsb:   1.28e-14    8.37e-19    1.16e-14    2.09e-18    8.49e-19

Name:     m:x3:x7:3   m:x3:x7:2   m:x3:x7:1   m:x3:x6:4   m:x3:x6:3
Model:   x3:x7:cmosn x3:x7:cmosp x3:x7:cmosp x3:x6:cmosn x3:x6:cmosn
Id:        1.41e-11    2.34e-17    1.41e-11    1.09e-11    1.41e-11
Vgs:       3.77e-01   -6.66e-16   -1.80e+00    5.78e-08    3.77e-01
Vds:       3.77e-01    1.88e-07    1.88e-07    1.42e+00    3.77e-01
Vbs:      -1.42e+00    1.88e-07    1.88e-07    0.00e+00   -1.42e+00
Vth:       7.19e-01   -3.97e-01   -3.97e-01    3.74e-01    7.19e-01
Vdsat:     3.84e-02   -3.31e-02   -1.15e+00    3.19e-02    3.84e-02
Gm:        3.82e-10    6.15e-16    7.32e-12    2.62e-10    3.82e-10
Gds:       9.42e-13    1.25e-10    7.52e-05    5.97e-13    9.42e-13
Gmb        7.76e-11    2.33e-16    4.58e-12    9.16e-11    7.76e-11
Cbd:       0.00e+00    0.00e+00    0.00e+00    0.00e+00    0.00e+00
Cbs:       0.00e+00    0.00e+00    0.00e+00    0.00e+00    0.00e+00
Cgsov:     4.12e-15    3.18e-15    3.18e-15    4.12e-15    4.12e-15
Cgdov:     4.12e-15    3.18e-15    3.18e-15    4.12e-15    4.12e-15
Cgbov:     4.97e-18    4.94e-18    4.94e-18    4.97e-18    4.97e-18
dQgdVgb:   4.46e-14    6.25e-14    2.15e-13    6.86e-14    4.46e-14
dQgdVdb:  -4.11e-15   -3.18e-15   -1.04e-13   -4.11e-15   -4.11e-15
dQgdVsb:  -4.12e-15   -3.18e-15   -1.16e-13   -4.12e-15   -4.12e-15
dQddVgb:  -4.12e-15   -3.18e-15   -1.07e-13   -4.12e-15   -4.12e-15
dQddVdb:   4.11e-15    3.18e-15    8.98e-14    4.11e-15    4.11e-15
dQddVsb:   2.01e-18    1.36e-18    5.06e-14    3.00e-18    2.01e-18
dQbdVgb:  -3.63e-14   -5.62e-14   -4.09e-16   -6.03e-14   -3.63e-14
dQbdVdb:  -9.11e-23   -2.39e-18   -7.20e-14    8.42e-22   -9.11e-23
dQbdVsb:   9.47e-19    2.09e-18    1.16e-14    8.49e-19    9.47e-19

Name:     m:x3:x6:2   m:x3:x6:1   m:x3:x5:4   m:x3:x5:3   m:x3:x5:2
Model:   x3:x6:cmosp x3:x6:cmosp x3:x5:cmosn x3:x5:cmosn x3:x5:cmosp
Id:        2.34e-17    1.41e-11    1.00e-11    1.00e-11    3.21e-12
Vgs:       3.51e-08   -1.80e+00    1.80e+00    1.80e+00    1.80e+00
Vds:       1.88e-07    1.88e-07    2.89e-08    2.89e-08    1.80e+00
Vbs:       1.88e-07    1.88e-07    0.00e+00   -2.89e-08    1.80e+00
Vth:      -3.97e-01   -3.97e-01    3.75e-01    3.75e-01   -3.92e-01
Vdsat:    -3.31e-02   -1.15e+00    1.11e+00    1.11e+00   -3.31e-02
Gm:        6.15e-16    7.32e-12    4.02e-12    4.02e-12    8.42e-11
Gds:       1.25e-10    7.52e-05    3.48e-04    3.48e-04    3.13e-13
Gmb        2.33e-16    4.58e-12    2.77e-12    2.77e-12    3.13e-11
Cbd:       0.00e+00    0.00e+00    0.00e+00    0.00e+00    0.00e+00
Cbs:       0.00e+00    0.00e+00    0.00e+00    0.00e+00    0.00e+00
Cgsov:     3.18e-15    3.18e-15    4.12e-15    4.12e-15    3.18e-15
Cgdov:     3.18e-15    3.18e-15    4.12e-15    4.12e-15    3.18e-15
Cgbov:     4.94e-18    4.94e-18    4.97e-18    4.97e-18    4.94e-18
dQgdVgb:   6.25e-14    2.15e-13    2.18e-13    2.18e-13    6.25e-14
dQgdVdb:  -3.18e-15   -1.04e-13   -1.06e-13   -1.06e-13   -3.17e-15
dQgdVsb:  -3.18e-15   -1.16e-13   -1.12e-13   -1.12e-13   -3.18e-15
dQddVgb:  -3.18e-15   -1.07e-13   -1.09e-13   -1.09e-13   -3.18e-15
dQddVdb:   3.18e-15    8.98e-14    9.45e-14    9.45e-14    3.17e-15
dQddVsb:   1.36e-18    5.06e-14    4.74e-14    4.74e-14    3.15e-18
dQbdVgb:  -5.62e-14   -4.09e-16   -4.05e-16   -4.05e-16   -5.62e-14
dQbdVdb:  -2.39e-18   -7.20e-14   -7.89e-14   -7.89e-14    1.85e-21
dQbdVsb:   2.09e-18    1.16e-14    1.28e-14    1.28e-14    7.67e-19

Name:     m:x3:x5:1   m:x3:x4:4   m:x3:x4:3   m:x3:x4:2   m:x3:x4:1
Model:   x3:x5:cmosp x3:x4:cmosn x3:x4:cmosn x3:x4:cmosp x3:x4:cmosp
Id:        3.21e-12    9.67e-12    1.15e-11    1.15e-11    1.90e-17
Vgs:       1.80e+00    1.80e+00    2.99e-08   -1.80e+00   -3.51e-08
Vds:       1.80e+00    2.78e-08    1.80e+00    1.53e-07    1.53e-07
Vbs:       1.80e+00    0.00e+00   -2.78e-08    1.53e-07    1.53e-07
Vth:      -3.92e-01    3.75e-01    3.73e-01   -3.97e-01   -3.97e-01
Vdsat:    -3.31e-02    1.11e+00    3.19e-02   -1.15e+00   -3.31e-02
Gm:        8.42e-11    3.87e-12    2.68e-10    5.95e-12    5.00e-16
Gds:       3.13e-13    3.48e-04    6.06e-13    7.52e-05    1.25e-10
Gmb        3.13e-11    2.67e-12    9.38e-11    3.72e-12    1.89e-16
Cbd:       0.00e+00    0.00e+00    0.00e+00    0.00e+00    0.00e+00
Cbs:       0.00e+00    0.00e+00    0.00e+00    0.00e+00    0.00e+00
Cgsov:     3.18e-15    4.12e-15    4.12e-15    3.18e-15    3.18e-15
Cgdov:     3.18e-15    4.12e-15    4.12e-15    3.18e-15    3.18e-15
Cgbov:     4.94e-18    4.97e-18    4.97e-18    4.94e-18    4.94e-18
dQgdVgb:   6.25e-14    2.18e-13    6.86e-14    2.15e-13    6.25e-14
dQgdVdb:  -3.17e-15   -1.06e-13   -4.11e-15   -1.04e-13   -3.18e-15
dQgdVsb:  -3.18e-15   -1.12e-13   -4.12e-15   -1.16e-13   -3.18e-15
dQddVgb:  -3.18e-15   -1.09e-13   -4.12e-15   -1.07e-13   -3.18e-15
dQddVdb:   3.17e-15    9.45e-14    4.11e-15    8.98e-14    3.18e-15
dQddVsb:   3.15e-18    4.74e-14    3.03e-18    5.06e-14    1.36e-18
dQbdVgb:  -5.62e-14   -4.05e-16   -6.03e-14   -4.09e-16   -5.62e-14
dQbdVdb:   1.85e-21   -7.89e-14    8.60e-22   -7.20e-14   -2.39e-18
dQbdVsb:   7.67e-19    1.28e-14    8.37e-19    1.16e-14    2.09e-18

Name:     m:x3:x3:4   m:x3:x3:3   m:x3:x3:2   m:x3:x3:1   m:x3:x2:4
Model:   x3:x3:cmosn x3:x3:cmosn x3:x3:cmosp x3:x3:cmosp x3:x2:cmosn
Id:        1.09e-11    1.41e-11    2.34e-17    1.41e-11    1.09e-11
Vgs:       0.00e+00    3.77e-01   -5.55e-15   -1.80e+00    0.00e+00
Vds:       1.42e+00    3.77e-01    1.88e-07    1.88e-07    1.42e+00
Vbs:       0.00e+00   -1.42e+00    1.88e-07    1.88e-07    0.00e+00
Vth:       3.74e-01    7.19e-01   -3.97e-01   -3.97e-01    3.74e-01
Vdsat:     3.19e-02    3.84e-02   -3.31e-02   -1.15e+00    3.19e-02
Gm:        2.62e-10    3.82e-10    6.15e-16    7.32e-12    2.62e-10
Gds:       5.97e-13    9.42e-13    1.25e-10    7.52e-05    5.97e-13
Gmb        9.16e-11    7.76e-11    2.33e-16    4.58e-12    9.16e-11
Cbd:       0.00e+00    0.00e+00    0.00e+00    0.00e+00    0.00e+00
Cbs:       0.00e+00    0.00e+00    0.00e+00    0.00e+00    0.00e+00
Cgsov:     4.12e-15    4.12e-15    3.18e-15    3.18e-15    4.12e-15
Cgdov:     4.12e-15    4.12e-15    3.18e-15    3.18e-15    4.12e-15
Cgbov:     4.97e-18    4.97e-18    4.94e-18    4.94e-18    4.97e-18
dQgdVgb:   6.86e-14    4.46e-14    6.25e-14    2.15e-13    6.86e-14
dQgdVdb:  -4.11e-15   -4.11e-15   -3.18e-15   -1.04e-13   -4.11e-15
dQgdVsb:  -4.12e-15   -4.12e-15   -3.18e-15   -1.16e-13   -4.12e-15
dQddVgb:  -4.12e-15   -4.12e-15   -3.18e-15   -1.07e-13   -4.12e-15
dQddVdb:   4.11e-15    4.11e-15    3.18e-15    8.98e-14    4.11e-15
dQddVsb:   3.00e-18    2.01e-18    1.36e-18    5.06e-14    3.00e-18
dQbdVgb:  -6.03e-14   -3.63e-14   -5.62e-14   -4.09e-16   -6.03e-14
dQbdVdb:   8.42e-22   -9.11e-23   -2.39e-18   -7.20e-14    8.42e-22
dQbdVsb:   8.49e-19    9.47e-19    2.09e-18    1.16e-14    8.49e-19

Name:     m:x3:x2:3   m:x3:x2:2   m:x3:x2:1   m:x3:x1:4   m:x3:x1:3
Model:   x3:x2:cmosn x3:x2:cmosp x3:x2:cmosp x3:x1:cmosn x3:x1:cmosn
Id:        1.41e-11    2.34e-17    1.41e-11    1.00e-11    1.00e-11
Vgs:       3.77e-01    1.88e-07   -1.80e+00    1.80e+00    1.80e+00
Vds:       3.77e-01    1.88e-07    1.88e-07    2.89e-08    2.89e-08
Vbs:      -1.42e+00    1.88e-07    1.88e-07    0.00e+00   -2.89e-08
Vth:       7.19e-01   -3.97e-01   -3.97e-01    3.75e-01    3.75e-01
Vdsat:     3.84e-02   -3.31e-02   -1.15e+00    1.11e+00    1.11e+00
Gm:        3.82e-10    6.15e-16    7.32e-12    4.02e-12    4.02e-12
Gds:       9.42e-13    1.25e-10    7.52e-05    3.48e-04    3.48e-04
Gmb        7.76e-11    2.33e-16    4.58e-12    2.77e-12    2.77e-12
Cbd:       0.00e+00    0.00e+00    0.00e+00    0.00e+00    0.00e+00
Cbs:       0.00e+00    0.00e+00    0.00e+00    0.00e+00    0.00e+00
Cgsov:     4.12e-15    3.18e-15    3.18e-15    4.12e-15    4.12e-15
Cgdov:     4.12e-15    3.18e-15    3.18e-15    4.12e-15    4.12e-15
Cgbov:     4.97e-18    4.94e-18    4.94e-18    4.97e-18    4.97e-18
dQgdVgb:   4.46e-14    6.25e-14    2.15e-13    2.18e-13    2.18e-13
dQgdVdb:  -4.11e-15   -3.18e-15   -1.04e-13   -1.06e-13   -1.06e-13
dQgdVsb:  -4.12e-15   -3.18e-15   -1.16e-13   -1.12e-13   -1.12e-13
dQddVgb:  -4.12e-15   -3.18e-15   -1.07e-13   -1.09e-13   -1.09e-13
dQddVdb:   4.11e-15    3.18e-15    8.98e-14    9.45e-14    9.45e-14
dQddVsb:   2.01e-18    1.36e-18    5.06e-14    4.74e-14    4.74e-14
dQbdVgb:  -3.63e-14   -5.62e-14   -4.09e-16   -4.05e-16   -4.05e-16
dQbdVdb:  -9.11e-23   -2.39e-18   -7.20e-14   -7.89e-14   -7.89e-14
dQbdVsb:   9.47e-19    2.09e-18    1.16e-14    1.28e-14    1.28e-14

Name:     m:x3:x1:2   m:x3:x1:1   m:x2:x9:4   m:x2:x9:3   m:x2:x9:2
Model:   x3:x1:cmosp x3:x1:cmosp x2:x9:cmosn x2:x9:cmosn x2:x9:cmosp
Id:        3.21e-12    3.21e-12    1.00e-11    1.00e-11    3.21e-12
Vgs:       1.80e+00    1.80e+00    1.80e+00    1.80e+00    1.80e+00
Vds:       1.80e+00    1.80e+00    2.89e-08    2.89e-08    1.80e+00
Vbs:       1.80e+00    1.80e+00    0.00e+00   -2.89e-08    1.80e+00
Vth:      -3.92e-01   -3.92e-01    3.75e-01    3.75e-01   -3.92e-01
Vdsat:    -3.31e-02   -3.31e-02    1.11e+00    1.11e+00   -3.31e-02
Gm:        8.42e-11    8.42e-11    4.02e-12    4.02e-12    8.42e-11
Gds:       3.13e-13    3.13e-13    3.48e-04    3.48e-04    3.13e-13
Gmb        3.13e-11    3.13e-11    2.77e-12    2.77e-12    3.13e-11
Cbd:       0.00e+00    0.00e+00    0.00e+00    0.00e+00    0.00e+00
Cbs:       0.00e+00    0.00e+00    0.00e+00    0.00e+00    0.00e+00
Cgsov:     3.18e-15    3.18e-15    4.12e-15    4.12e-15    3.18e-15
Cgdov:     3.18e-15    3.18e-15    4.12e-15    4.12e-15    3.18e-15
Cgbov:     4.94e-18    4.94e-18    4.97e-18    4.97e-18    4.94e-18
dQgdVgb:   6.25e-14    6.25e-14    2.18e-13    2.18e-13    6.25e-14
dQgdVdb:  -3.17e-15   -3.17e-15   -1.06e-13   -1.06e-13   -3.17e-15
dQgdVsb:  -3.18e-15   -3.18e-15   -1.12e-13   -1.12e-13   -3.18e-15
dQddVgb:  -3.18e-15   -3.18e-15   -1.09e-13   -1.09e-13   -3.18e-15
dQddVdb:   3.17e-15    3.17e-15    9.45e-14    9.45e-14    3.17e-15
dQddVsb:   3.15e-18    3.15e-18    4.74e-14    4.74e-14    3.15e-18
dQbdVgb:  -5.62e-14   -5.62e-14   -4.05e-16   -4.05e-16   -5.62e-14
dQbdVdb:   1.85e-21    1.85e-21   -7.89e-14   -7.89e-14    1.85e-21
dQbdVsb:   7.67e-19    7.67e-19    1.28e-14    1.28e-14    7.67e-19

Name:     m:x2:x9:1   m:x2:x8:4   m:x2:x8:3   m:x2:x8:2   m:x2:x8:1
Model:   x2:x9:cmosp x2:x8:cmosn x2:x8:cmosn x2:x8:cmosp x2:x8:cmosp
Id:        3.21e-12    9.67e-12    1.15e-11    1.15e-11    1.90e-17
Vgs:       1.80e+00    1.80e+00    2.99e-08   -1.80e+00   -3.51e-08
Vds:       1.80e+00    2.78e-08    1.80e+00    1.53e-07    1.53e-07
Vbs:       1.80e+00    0.00e+00   -2.78e-08    1.53e-07    1.53e-07
Vth:      -3.92e-01    3.75e-01    3.73e-01   -3.97e-01   -3.97e-01
Vdsat:    -3.31e-02    1.11e+00    3.19e-02   -1.15e+00   -3.31e-02
Gm:        8.42e-11    3.87e-12    2.68e-10    5.95e-12    5.00e-16
Gds:       3.13e-13    3.48e-04    6.06e-13    7.52e-05    1.25e-10
Gmb        3.13e-11    2.67e-12    9.38e-11    3.72e-12    1.89e-16
Cbd:       0.00e+00    0.00e+00    0.00e+00    0.00e+00    0.00e+00
Cbs:       0.00e+00    0.00e+00    0.00e+00    0.00e+00    0.00e+00
Cgsov:     3.18e-15    4.12e-15    4.12e-15    3.18e-15    3.18e-15
Cgdov:     3.18e-15    4.12e-15    4.12e-15    3.18e-15    3.18e-15
Cgbov:     4.94e-18    4.97e-18    4.97e-18    4.94e-18    4.94e-18
dQgdVgb:   6.25e-14    2.18e-13    6.86e-14    2.15e-13    6.25e-14
dQgdVdb:  -3.17e-15   -1.06e-13   -4.11e-15   -1.04e-13   -3.18e-15
dQgdVsb:  -3.18e-15   -1.12e-13   -4.12e-15   -1.16e-13   -3.18e-15
dQddVgb:  -3.18e-15   -1.09e-13   -4.12e-15   -1.07e-13   -3.18e-15
dQddVdb:   3.17e-15    9.45e-14    4.11e-15    8.98e-14    3.18e-15
dQddVsb:   3.15e-18    4.74e-14    3.03e-18    5.06e-14    1.36e-18
dQbdVgb:  -5.62e-14   -4.05e-16   -6.03e-14   -4.09e-16   -5.62e-14
dQbdVdb:   1.85e-21   -7.89e-14    8.60e-22   -7.20e-14   -2.39e-18
dQbdVsb:   7.67e-19    1.28e-14    8.37e-19    1.16e-14    2.09e-18

Name:     m:x2:x7:4   m:x2:x7:3   m:x2:x7:2   m:x2:x7:1   m:x2:x6:4
Model:   x2:x7:cmosn x2:x7:cmosn x2:x7:cmosp x2:x7:cmosp x2:x6:cmosn
Id:        1.09e-11    1.41e-11    2.34e-17    1.41e-11    1.09e-11
Vgs:       5.78e-08    3.77e-01    0.00e+00   -1.80e+00    5.78e-08
Vds:       1.42e+00    3.77e-01    1.88e-07    1.88e-07    1.42e+00
Vbs:       0.00e+00   -1.42e+00    1.88e-07    1.88e-07    0.00e+00
Vth:       3.74e-01    7.19e-01   -3.97e-01   -3.97e-01    3.74e-01
Vdsat:     3.19e-02    3.84e-02   -3.31e-02   -1.15e+00    3.19e-02
Gm:        2.62e-10    3.82e-10    6.15e-16    7.32e-12    2.62e-10
Gds:       5.97e-13    9.42e-13    1.25e-10    7.52e-05    5.97e-13
Gmb        9.16e-11    7.76e-11    2.33e-16    4.58e-12    9.16e-11
Cbd:       0.00e+00    0.00e+00    0.00e+00    0.00e+00    0.00e+00
Cbs:       0.00e+00    0.00e+00    0.00e+00    0.00e+00    0.00e+00
Cgsov:     4.12e-15    4.12e-15    3.18e-15    3.18e-15    4.12e-15
Cgdov:     4.12e-15    4.12e-15    3.18e-15    3.18e-15    4.12e-15
Cgbov:     4.97e-18    4.97e-18    4.94e-18    4.94e-18    4.97e-18
dQgdVgb:   6.86e-14    4.46e-14    6.25e-14    2.15e-13    6.86e-14
dQgdVdb:  -4.11e-15   -4.11e-15   -3.18e-15   -1.04e-13   -4.11e-15
dQgdVsb:  -4.12e-15   -4.12e-15   -3.18e-15   -1.16e-13   -4.12e-15
dQddVgb:  -4.12e-15   -4.12e-15   -3.18e-15   -1.07e-13   -4.12e-15
dQddVdb:   4.11e-15    4.11e-15    3.18e-15    8.98e-14    4.11e-15
dQddVsb:   3.00e-18    2.01e-18    1.36e-18    5.06e-14    3.00e-18
dQbdVgb:  -6.03e-14   -3.63e-14   -5.62e-14   -4.09e-16   -6.03e-14
dQbdVdb:   8.42e-22   -9.11e-23   -2.39e-18   -7.20e-14    8.42e-22
dQbdVsb:   8.49e-19    9.47e-19    2.09e-18    1.16e-14    8.49e-19

Name:     m:x2:x6:3   m:x2:x6:2   m:x2:x6:1   m:x2:x5:4   m:x2:x5:3
Model:   x2:x6:cmosn x2:x6:cmosp x2:x6:cmosp x2:x5:cmosn x2:x5:cmosn
Id:        1.41e-11    2.34e-17    1.41e-11    1.00e-11    1.00e-11
Vgs:       3.77e-01   -1.11e-15   -1.80e+00    1.80e+00    1.80e+00
Vds:       3.77e-01    1.88e-07    1.88e-07    2.89e-08    2.89e-08
Vbs:      -1.42e+00    1.88e-07    1.88e-07    0.00e+00   -2.89e-08
Vth:       7.19e-01   -3.97e-01   -3.97e-01    3.75e-01    3.75e-01
Vdsat:     3.84e-02   -3.31e-02   -1.15e+00    1.11e+00    1.11e+00
Gm:        3.82e-10    6.15e-16    7.32e-12    4.02e-12    4.02e-12
Gds:       9.42e-13    1.25e-10    7.52e-05    3.48e-04    3.48e-04
Gmb        7.76e-11    2.33e-16    4.58e-12    2.77e-12    2.77e-12
Cbd:       0.00e+00    0.00e+00    0.00e+00    0.00e+00    0.00e+00
Cbs:       0.00e+00    0.00e+00    0.00e+00    0.00e+00    0.00e+00
Cgsov:     4.12e-15    3.18e-15    3.18e-15    4.12e-15    4.12e-15
Cgdov:     4.12e-15    3.18e-15    3.18e-15    4.12e-15    4.12e-15
Cgbov:     4.97e-18    4.94e-18    4.94e-18    4.97e-18    4.97e-18
dQgdVgb:   4.46e-14    6.25e-14    2.15e-13    2.18e-13    2.18e-13
dQgdVdb:  -4.11e-15   -3.18e-15   -1.04e-13   -1.06e-13   -1.06e-13
dQgdVsb:  -4.12e-15   -3.18e-15   -1.16e-13   -1.12e-13   -1.12e-13
dQddVgb:  -4.12e-15   -3.18e-15   -1.07e-13   -1.09e-13   -1.09e-13
dQddVdb:   4.11e-15    3.18e-15    8.98e-14    9.45e-14    9.45e-14
dQddVsb:   2.01e-18    1.36e-18    5.06e-14    4.74e-14    4.74e-14
dQbdVgb:  -3.63e-14   -5.62e-14   -4.09e-16   -4.05e-16   -4.05e-16
dQbdVdb:  -9.11e-23   -2.39e-18   -7.20e-14   -7.89e-14   -7.89e-14
dQbdVsb:   9.47e-19    2.09e-18    1.16e-14    1.28e-14    1.28e-14

Name:     m:x2:x5:2   m:x2:x5:1   m:x2:x4:4   m:x2:x4:3   m:x2:x4:2
Model:   x2:x5:cmosp x2:x5:cmosp x2:x4:cmosn x2:x4:cmosn x2:x4:cmosp
Id:        3.21e-12    3.21e-12    1.09e-11    1.41e-11    2.34e-17
Vgs:       1.80e+00    1.80e+00    5.78e-08    3.77e-01    3.51e-08
Vds:       1.80e+00    1.80e+00    1.42e+00    3.77e-01    1.88e-07
Vbs:       1.80e+00    1.80e+00    0.00e+00   -1.42e+00    1.88e-07
Vth:      -3.92e-01   -3.92e-01    3.74e-01    7.19e-01   -3.97e-01
Vdsat:    -3.31e-02   -3.31e-02    3.19e-02    3.84e-02   -3.31e-02
Gm:        8.42e-11    8.42e-11    2.62e-10    3.82e-10    6.15e-16
Gds:       3.13e-13    3.13e-13    5.97e-13    9.42e-13    1.25e-10
Gmb        3.13e-11    3.13e-11    9.16e-11    7.76e-11    2.33e-16
Cbd:       0.00e+00    0.00e+00    0.00e+00    0.00e+00    0.00e+00
Cbs:       0.00e+00    0.00e+00    0.00e+00    0.00e+00    0.00e+00
Cgsov:     3.18e-15    3.18e-15    4.12e-15    4.12e-15    3.18e-15
Cgdov:     3.18e-15    3.18e-15    4.12e-15    4.12e-15    3.18e-15
Cgbov:     4.94e-18    4.94e-18    4.97e-18    4.97e-18    4.94e-18
dQgdVgb:   6.25e-14    6.25e-14    6.86e-14    4.46e-14    6.25e-14
dQgdVdb:  -3.17e-15   -3.17e-15   -4.11e-15   -4.11e-15   -3.18e-15
dQgdVsb:  -3.18e-15   -3.18e-15   -4.12e-15   -4.12e-15   -3.18e-15
dQddVgb:  -3.18e-15   -3.18e-15   -4.12e-15   -4.12e-15   -3.18e-15
dQddVdb:   3.17e-15    3.17e-15    4.11e-15    4.11e-15    3.18e-15
dQddVsb:   3.15e-18    3.15e-18    3.00e-18    2.01e-18    1.36e-18
dQbdVgb:  -5.62e-14   -5.62e-14   -6.03e-14   -3.63e-14   -5.62e-14
dQbdVdb:   1.85e-21    1.85e-21    8.42e-22   -9.11e-23   -2.39e-18
dQbdVsb:   7.67e-19    7.67e-19    8.49e-19    9.47e-19    2.09e-18

Name:     m:x2:x4:1   m:x2:x3:4   m:x2:x3:3   m:x2:x3:2   m:x2:x3:1
Model:   x2:x4:cmosp x2:x3:cmosn x2:x3:cmosn x2:x3:cmosp x2:x3:cmosp
Id:        1.41e-11    1.00e-11    1.00e-11    3.21e-12    3.21e-12
Vgs:      -1.80e+00    1.80e+00    1.80e+00    1.80e+00    1.80e+00
Vds:       1.88e-07    2.89e-08    2.89e-08    1.80e+00    1.80e+00
Vbs:       1.88e-07    0.00e+00   -2.89e-08    1.80e+00    1.80e+00
Vth:      -3.97e-01    3.75e-01    3.75e-01   -3.92e-01   -3.92e-01
Vdsat:    -1.15e+00    1.11e+00    1.11e+00   -3.31e-02   -3.31e-02
Gm:        7.32e-12    4.02e-12    4.02e-12    8.42e-11    8.42e-11
Gds:       7.52e-05    3.48e-04    3.48e-04    3.13e-13    3.13e-13
Gmb        4.58e-12    2.77e-12    2.77e-12    3.13e-11    3.13e-11
Cbd:       0.00e+00    0.00e+00    0.00e+00    0.00e+00    0.00e+00
Cbs:       0.00e+00    0.00e+00    0.00e+00    0.00e+00    0.00e+00
Cgsov:     3.18e-15    4.12e-15    4.12e-15    3.18e-15    3.18e-15
Cgdov:     3.18e-15    4.12e-15    4.12e-15    3.18e-15    3.18e-15
Cgbov:     4.94e-18    4.97e-18    4.97e-18    4.94e-18    4.94e-18
dQgdVgb:   2.15e-13    2.18e-13    2.18e-13    6.25e-14    6.25e-14
dQgdVdb:  -1.04e-13   -1.06e-13   -1.06e-13   -3.17e-15   -3.17e-15
dQgdVsb:  -1.16e-13   -1.12e-13   -1.12e-13   -3.18e-15   -3.18e-15
dQddVgb:  -1.07e-13   -1.09e-13   -1.09e-13   -3.18e-15   -3.18e-15
dQddVdb:   8.98e-14    9.45e-14    9.45e-14    3.17e-15    3.17e-15
dQddVsb:   5.06e-14    4.74e-14    4.74e-14    3.15e-18    3.15e-18
dQbdVgb:  -4.09e-16   -4.05e-16   -4.05e-16   -5.62e-14   -5.62e-14
dQbdVdb:  -7.20e-14   -7.89e-14   -7.89e-14    1.85e-21    1.85e-21
dQbdVsb:   1.16e-14    1.28e-14    1.28e-14    7.67e-19    7.67e-19

Name:     m:x2:x2:4   m:x2:x2:3   m:x2:x2:2   m:x2:x2:1   m:x2:x1:4
Model:   x2:x2:cmosn x2:x2:cmosn x2:x2:cmosp x2:x2:cmosp x2:x1:cmosn
Id:        9.67e-12    1.15e-11    1.15e-11    1.90e-17    9.67e-12
Vgs:       1.80e+00   -2.78e-08   -1.80e+00    1.53e-07    1.80e+00
Vds:       2.78e-08    1.80e+00    1.53e-07    1.53e-07    2.78e-08
Vbs:       0.00e+00   -2.78e-08    1.53e-07    1.53e-07    0.00e+00
Vth:       3.75e-01    3.73e-01   -3.97e-01   -3.97e-01    3.75e-01
Vdsat:     1.11e+00    3.19e-02   -1.15e+00   -3.31e-02    1.11e+00
Gm:        3.87e-12    2.68e-10    5.95e-12    5.00e-16    3.87e-12
Gds:       3.48e-04    6.06e-13    7.52e-05    1.25e-10    3.48e-04
Gmb        2.67e-12    9.38e-11    3.72e-12    1.89e-16    2.67e-12
Cbd:       0.00e+00    0.00e+00    0.00e+00    0.00e+00    0.00e+00
Cbs:       0.00e+00    0.00e+00    0.00e+00    0.00e+00    0.00e+00
Cgsov:     4.12e-15    4.12e-15    3.18e-15    3.18e-15    4.12e-15
Cgdov:     4.12e-15    4.12e-15    3.18e-15    3.18e-15    4.12e-15
Cgbov:     4.97e-18    4.97e-18    4.94e-18    4.94e-18    4.97e-18
dQgdVgb:   2.18e-13    6.86e-14    2.15e-13    6.25e-14    2.18e-13
dQgdVdb:  -1.06e-13   -4.11e-15   -1.04e-13   -3.18e-15   -1.06e-13
dQgdVsb:  -1.12e-13   -4.12e-15   -1.16e-13   -3.18e-15   -1.12e-13
dQddVgb:  -1.09e-13   -4.12e-15   -1.07e-13   -3.18e-15   -1.09e-13
dQddVdb:   9.45e-14    4.11e-15    8.98e-14    3.18e-15    9.45e-14
dQddVsb:   4.74e-14    3.03e-18    5.06e-14    1.36e-18    4.74e-14
dQbdVgb:  -4.05e-16   -6.03e-14   -4.09e-16   -5.62e-14   -4.05e-16
dQbdVdb:  -7.89e-14    8.60e-22   -7.20e-14   -2.39e-18   -7.89e-14
dQbdVsb:   1.28e-14    8.37e-19    1.16e-14    2.09e-18    1.28e-14

Name:     m:x2:x1:3   m:x2:x1:2   m:x2:x1:1   m:x1:x9:4   m:x1:x9:3
Model:   x2:x1:cmosn x2:x1:cmosp x2:x1:cmosp x1:x9:cmosn x1:x9:cmosn
Id:        1.15e-11    1.15e-11    1.90e-17    1.00e-11    1.00e-11
Vgs:      -2.78e-08   -1.80e+00    2.22e-16    1.80e+00    1.80e+00
Vds:       1.80e+00    1.53e-07    1.53e-07    2.89e-08    2.89e-08
Vbs:      -2.78e-08    1.53e-07    1.53e-07    0.00e+00   -2.89e-08
Vth:       3.73e-01   -3.97e-01   -3.97e-01    3.75e-01    3.75e-01
Vdsat:     3.19e-02   -1.15e+00   -3.31e-02    1.11e+00    1.11e+00
Gm:        2.68e-10    5.95e-12    5.00e-16    4.02e-12    4.02e-12
Gds:       6.06e-13    7.52e-05    1.25e-10    3.48e-04    3.48e-04
Gmb        9.38e-11    3.72e-12    1.89e-16    2.77e-12    2.77e-12
Cbd:       0.00e+00    0.00e+00    0.00e+00    0.00e+00    0.00e+00
Cbs:       0.00e+00    0.00e+00    0.00e+00    0.00e+00    0.00e+00
Cgsov:     4.12e-15    3.18e-15    3.18e-15    4.12e-15    4.12e-15
Cgdov:     4.12e-15    3.18e-15    3.18e-15    4.12e-15    4.12e-15
Cgbov:     4.97e-18    4.94e-18    4.94e-18    4.97e-18    4.97e-18
dQgdVgb:   6.86e-14    2.15e-13    6.25e-14    2.18e-13    2.18e-13
dQgdVdb:  -4.11e-15   -1.04e-13   -3.18e-15   -1.06e-13   -1.06e-13
dQgdVsb:  -4.12e-15   -1.16e-13   -3.18e-15   -1.12e-13   -1.12e-13
dQddVgb:  -4.12e-15   -1.07e-13   -3.18e-15   -1.09e-13   -1.09e-13
dQddVdb:   4.11e-15    8.98e-14    3.18e-15    9.45e-14    9.45e-14
dQddVsb:   3.03e-18    5.06e-14    1.36e-18    4.74e-14    4.74e-14
dQbdVgb:  -6.03e-14   -4.09e-16   -5.62e-14   -4.05e-16   -4.05e-16
dQbdVdb:   8.60e-22   -7.20e-14   -2.39e-18   -7.89e-14   -7.89e-14
dQbdVsb:   8.37e-19    1.16e-14    2.09e-18    1.28e-14    1.28e-14

Name:     m:x1:x9:2   m:x1:x9:1   m:x1:x8:4   m:x1:x8:3   m:x1:x8:2
Model:   x1:x9:cmosp x1:x9:cmosp x1:x8:cmosn x1:x8:cmosn x1:x8:cmosp
Id:        3.21e-12    3.21e-12    9.67e-12    1.15e-11    1.15e-11
Vgs:       1.80e+00    1.80e+00    1.80e+00    2.99e-08   -1.80e+00
Vds:       1.80e+00    1.80e+00    2.78e-08    1.80e+00    1.53e-07
Vbs:       1.80e+00    1.80e+00    0.00e+00   -2.78e-08    1.53e-07
Vth:      -3.92e-01   -3.92e-01    3.75e-01    3.73e-01   -3.97e-01
Vdsat:    -3.31e-02   -3.31e-02    1.11e+00    3.19e-02   -1.15e+00
Gm:        8.42e-11    8.42e-11    3.87e-12    2.68e-10    5.95e-12
Gds:       3.13e-13    3.13e-13    3.48e-04    6.06e-13    7.52e-05
Gmb        3.13e-11    3.13e-11    2.67e-12    9.38e-11    3.72e-12
Cbd:       0.00e+00    0.00e+00    0.00e+00    0.00e+00    0.00e+00
Cbs:       0.00e+00    0.00e+00    0.00e+00    0.00e+00    0.00e+00
Cgsov:     3.18e-15    3.18e-15    4.12e-15    4.12e-15    3.18e-15
Cgdov:     3.18e-15    3.18e-15    4.12e-15    4.12e-15    3.18e-15
Cgbov:     4.94e-18    4.94e-18    4.97e-18    4.97e-18    4.94e-18
dQgdVgb:   6.25e-14    6.25e-14    2.18e-13    6.86e-14    2.15e-13
dQgdVdb:  -3.17e-15   -3.17e-15   -1.06e-13   -4.11e-15   -1.04e-13
dQgdVsb:  -3.18e-15   -3.18e-15   -1.12e-13   -4.12e-15   -1.16e-13
dQddVgb:  -3.18e-15   -3.18e-15   -1.09e-13   -4.12e-15   -1.07e-13
dQddVdb:   3.17e-15    3.17e-15    9.45e-14    4.11e-15    8.98e-14
dQddVsb:   3.15e-18    3.15e-18    4.74e-14    3.03e-18    5.06e-14
dQbdVgb:  -5.62e-14   -5.62e-14   -4.05e-16   -6.03e-14   -4.09e-16
dQbdVdb:   1.85e-21    1.85e-21   -7.89e-14    8.60e-22   -7.20e-14
dQbdVsb:   7.67e-19    7.67e-19    1.28e-14    8.37e-19    1.16e-14

Name:     m:x1:x8:1   m:x1:x7:4   m:x1:x7:3   m:x1:x7:2   m:x1:x7:1
Model:   x1:x8:cmosp x1:x7:cmosn x1:x7:cmosn x1:x7:cmosp x1:x7:cmosp
Id:        1.90e-17    1.09e-11    1.41e-11    2.34e-17    1.41e-11
Vgs:      -3.51e-08    0.00e+00    3.77e-01   -8.88e-16   -1.80e+00
Vds:       1.53e-07    1.42e+00    3.77e-01    1.88e-07    1.88e-07
Vbs:       1.53e-07    0.00e+00   -1.42e+00    1.88e-07    1.88e-07
Vth:      -3.97e-01    3.74e-01    7.19e-01   -3.97e-01   -3.97e-01
Vdsat:    -3.31e-02    3.19e-02    3.84e-02   -3.31e-02   -1.15e+00
Gm:        5.00e-16    2.62e-10    3.82e-10    6.15e-16    7.32e-12
Gds:       1.25e-10    5.97e-13    9.42e-13    1.25e-10    7.52e-05
Gmb        1.89e-16    9.16e-11    7.76e-11    2.33e-16    4.58e-12
Cbd:       0.00e+00    0.00e+00    0.00e+00    0.00e+00    0.00e+00
Cbs:       0.00e+00    0.00e+00    0.00e+00    0.00e+00    0.00e+00
Cgsov:     3.18e-15    4.12e-15    4.12e-15    3.18e-15    3.18e-15
Cgdov:     3.18e-15    4.12e-15    4.12e-15    3.18e-15    3.18e-15
Cgbov:     4.94e-18    4.97e-18    4.97e-18    4.94e-18    4.94e-18
dQgdVgb:   6.25e-14    6.86e-14    4.46e-14    6.25e-14    2.15e-13
dQgdVdb:  -3.18e-15   -4.11e-15   -4.11e-15   -3.18e-15   -1.04e-13
dQgdVsb:  -3.18e-15   -4.12e-15   -4.12e-15   -3.18e-15   -1.16e-13
dQddVgb:  -3.18e-15   -4.12e-15   -4.12e-15   -3.18e-15   -1.07e-13
dQddVdb:   3.18e-15    4.11e-15    4.11e-15    3.18e-15    8.98e-14
dQddVsb:   1.36e-18    3.00e-18    2.01e-18    1.36e-18    5.06e-14
dQbdVgb:  -5.62e-14   -6.03e-14   -3.63e-14   -5.62e-14   -4.09e-16
dQbdVdb:  -2.39e-18    8.42e-22   -9.11e-23   -2.39e-18   -7.20e-14
dQbdVsb:   2.09e-18    8.49e-19    9.47e-19    2.09e-18    1.16e-14

Name:     m:x1:x6:4   m:x1:x6:3   m:x1:x6:2   m:x1:x6:1   m:x1:x5:4
Model:   x1:x6:cmosn x1:x6:cmosn x1:x6:cmosp x1:x6:cmosp x1:x5:cmosn
Id:        1.09e-11    1.41e-11    2.34e-17    1.41e-11    1.00e-11
Vgs:       0.00e+00    3.77e-01    3.51e-08   -1.80e+00    1.80e+00
Vds:       1.42e+00    3.77e-01    1.88e-07    1.88e-07    2.89e-08
Vbs:       0.00e+00   -1.42e+00    1.88e-07    1.88e-07    0.00e+00
Vth:       3.74e-01    7.19e-01   -3.97e-01   -3.97e-01    3.75e-01
Vdsat:     3.19e-02    3.84e-02   -3.31e-02   -1.15e+00    1.11e+00
Gm:        2.62e-10    3.82e-10    6.15e-16    7.32e-12    4.02e-12
Gds:       5.97e-13    9.42e-13    1.25e-10    7.52e-05    3.48e-04
Gmb        9.16e-11    7.76e-11    2.33e-16    4.58e-12    2.77e-12
Cbd:       0.00e+00    0.00e+00    0.00e+00    0.00e+00    0.00e+00
Cbs:       0.00e+00    0.00e+00    0.00e+00    0.00e+00    0.00e+00
Cgsov:     4.12e-15    4.12e-15    3.18e-15    3.18e-15    4.12e-15
Cgdov:     4.12e-15    4.12e-15    3.18e-15    3.18e-15    4.12e-15
Cgbov:     4.97e-18    4.97e-18    4.94e-18    4.94e-18    4.97e-18
dQgdVgb:   6.86e-14    4.46e-14    6.25e-14    2.15e-13    2.18e-13
dQgdVdb:  -4.11e-15   -4.11e-15   -3.18e-15   -1.04e-13   -1.06e-13
dQgdVsb:  -4.12e-15   -4.12e-15   -3.18e-15   -1.16e-13   -1.12e-13
dQddVgb:  -4.12e-15   -4.12e-15   -3.18e-15   -1.07e-13   -1.09e-13
dQddVdb:   4.11e-15    4.11e-15    3.18e-15    8.98e-14    9.45e-14
dQddVsb:   3.00e-18    2.01e-18    1.36e-18    5.06e-14    4.74e-14
dQbdVgb:  -6.03e-14   -3.63e-14   -5.62e-14   -4.09e-16   -4.05e-16
dQbdVdb:   8.42e-22   -9.11e-23   -2.39e-18   -7.20e-14   -7.89e-14
dQbdVsb:   8.49e-19    9.47e-19    2.09e-18    1.16e-14    1.28e-14

Name:     m:x1:x5:3   m:x1:x5:2   m:x1:x5:1   m:x1:x4:4   m:x1:x4:3
Model:   x1:x5:cmosn x1:x5:cmosp x1:x5:cmosp x1:x4:cmosn x1:x4:cmosn
Id:        1.00e-11    3.21e-12    3.21e-12    9.67e-12    1.15e-11
Vgs:       1.80e+00    1.80e+00    1.80e+00    1.80e+00    2.99e-08
Vds:       2.89e-08    1.80e+00    1.80e+00    2.78e-08    1.80e+00
Vbs:      -2.89e-08    1.80e+00    1.80e+00    0.00e+00   -2.78e-08
Vth:       3.75e-01   -3.92e-01   -3.92e-01    3.75e-01    3.73e-01
Vdsat:     1.11e+00   -3.31e-02   -3.31e-02    1.11e+00    3.19e-02
Gm:        4.02e-12    8.42e-11    8.42e-11    3.87e-12    2.68e-10
Gds:       3.48e-04    3.13e-13    3.13e-13    3.48e-04    6.06e-13
Gmb        2.77e-12    3.13e-11    3.13e-11    2.67e-12    9.38e-11
Cbd:       0.00e+00    0.00e+00    0.00e+00    0.00e+00    0.00e+00
Cbs:       0.00e+00    0.00e+00    0.00e+00    0.00e+00    0.00e+00
Cgsov:     4.12e-15    3.18e-15    3.18e-15    4.12e-15    4.12e-15
Cgdov:     4.12e-15    3.18e-15    3.18e-15    4.12e-15    4.12e-15
Cgbov:     4.97e-18    4.94e-18    4.94e-18    4.97e-18    4.97e-18
dQgdVgb:   2.18e-13    6.25e-14    6.25e-14    2.18e-13    6.86e-14
dQgdVdb:  -1.06e-13   -3.17e-15   -3.17e-15   -1.06e-13   -4.11e-15
dQgdVsb:  -1.12e-13   -3.18e-15   -3.18e-15   -1.12e-13   -4.12e-15
dQddVgb:  -1.09e-13   -3.18e-15   -3.18e-15   -1.09e-13   -4.12e-15
dQddVdb:   9.45e-14    3.17e-15    3.17e-15    9.45e-14    4.11e-15
dQddVsb:   4.74e-14    3.15e-18    3.15e-18    4.74e-14    3.03e-18
dQbdVgb:  -4.05e-16   -5.62e-14   -5.62e-14   -4.05e-16   -6.03e-14
dQbdVdb:  -7.89e-14    1.85e-21    1.85e-21   -7.89e-14    8.60e-22
dQbdVsb:   1.28e-14    7.67e-19    7.67e-19    1.28e-14    8.37e-19

Name:     m:x1:x4:2   m:x1:x4:1   m:x1:x3:4   m:x1:x3:3   m:x1:x3:2
Model:   x1:x4:cmosp x1:x4:cmosp x1:x3:cmosn x1:x3:cmosn x1:x3:cmosp
Id:        1.15e-11    1.90e-17    1.09e-11    1.41e-11    2.34e-17
Vgs:      -1.80e+00   -3.51e-08    0.00e+00    3.77e-01   -5.55e-15
Vds:       1.53e-07    1.53e-07    1.42e+00    3.77e-01    1.88e-07
Vbs:       1.53e-07    1.53e-07    0.00e+00   -1.42e+00    1.88e-07
Vth:      -3.97e-01   -3.97e-01    3.74e-01    7.19e-01   -3.97e-01
Vdsat:    -1.15e+00   -3.31e-02    3.19e-02    3.84e-02   -3.31e-02
Gm:        5.95e-12    5.00e-16    2.62e-10    3.82e-10    6.15e-16
Gds:       7.52e-05    1.25e-10    5.97e-13    9.42e-13    1.25e-10
Gmb        3.72e-12    1.89e-16    9.16e-11    7.76e-11    2.33e-16
Cbd:       0.00e+00    0.00e+00    0.00e+00    0.00e+00    0.00e+00
Cbs:       0.00e+00    0.00e+00    0.00e+00    0.00e+00    0.00e+00
Cgsov:     3.18e-15    3.18e-15    4.12e-15    4.12e-15    3.18e-15
Cgdov:     3.18e-15    3.18e-15    4.12e-15    4.12e-15    3.18e-15
Cgbov:     4.94e-18    4.94e-18    4.97e-18    4.97e-18    4.94e-18
dQgdVgb:   2.15e-13    6.25e-14    6.86e-14    4.46e-14    6.25e-14
dQgdVdb:  -1.04e-13   -3.18e-15   -4.11e-15   -4.11e-15   -3.18e-15
dQgdVsb:  -1.16e-13   -3.18e-15   -4.12e-15   -4.12e-15   -3.18e-15
dQddVgb:  -1.07e-13   -3.18e-15   -4.12e-15   -4.12e-15   -3.18e-15
dQddVdb:   8.98e-14    3.18e-15    4.11e-15    4.11e-15    3.18e-15
dQddVsb:   5.06e-14    1.36e-18    3.00e-18    2.01e-18    1.36e-18
dQbdVgb:  -4.09e-16   -5.62e-14   -6.03e-14   -3.63e-14   -5.62e-14
dQbdVdb:  -7.20e-14   -2.39e-18    8.42e-22   -9.11e-23   -2.39e-18
dQbdVsb:   1.16e-14    2.09e-18    8.49e-19    9.47e-19    2.09e-18

Name:     m:x1:x3:1   m:x1:x2:4   m:x1:x2:3   m:x1:x2:2   m:x1:x2:1
Model:   x1:x3:cmosp x1:x2:cmosn x1:x2:cmosn x1:x2:cmosp x1:x2:cmosp
Id:        1.41e-11    1.09e-11    1.41e-11    2.34e-17    1.41e-11
Vgs:      -1.80e+00    0.00e+00    3.77e-01    1.88e-07   -1.80e+00
Vds:       1.88e-07    1.42e+00    3.77e-01    1.88e-07    1.88e-07
Vbs:       1.88e-07    0.00e+00   -1.42e+00    1.88e-07    1.88e-07
Vth:      -3.97e-01    3.74e-01    7.19e-01   -3.97e-01   -3.97e-01
Vdsat:    -1.15e+00    3.19e-02    3.84e-02   -3.31e-02   -1.15e+00
Gm:        7.32e-12    2.62e-10    3.82e-10    6.15e-16    7.32e-12
Gds:       7.52e-05    5.97e-13    9.42e-13    1.25e-10    7.52e-05
Gmb        4.58e-12    9.16e-11    7.76e-11    2.33e-16    4.58e-12
Cbd:       0.00e+00    0.00e+00    0.00e+00    0.00e+00    0.00e+00
Cbs:       0.00e+00    0.00e+00    0.00e+00    0.00e+00    0.00e+00
Cgsov:     3.18e-15    4.12e-15    4.12e-15    3.18e-15    3.18e-15
Cgdov:     3.18e-15    4.12e-15    4.12e-15    3.18e-15    3.18e-15
Cgbov:     4.94e-18    4.97e-18    4.97e-18    4.94e-18    4.94e-18
dQgdVgb:   2.15e-13    6.86e-14    4.46e-14    6.25e-14    2.15e-13
dQgdVdb:  -1.04e-13   -4.11e-15   -4.11e-15   -3.18e-15   -1.04e-13
dQgdVsb:  -1.16e-13   -4.12e-15   -4.12e-15   -3.18e-15   -1.16e-13
dQddVgb:  -1.07e-13   -4.12e-15   -4.12e-15   -3.18e-15   -1.07e-13
dQddVdb:   8.98e-14    4.11e-15    4.11e-15    3.18e-15    8.98e-14
dQddVsb:   5.06e-14    3.00e-18    2.01e-18    1.36e-18    5.06e-14
dQbdVgb:  -4.09e-16   -6.03e-14   -3.63e-14   -5.62e-14   -4.09e-16
dQbdVdb:  -7.20e-14    8.42e-22   -9.11e-23   -2.39e-18   -7.20e-14
dQbdVsb:   1.16e-14    8.49e-19    9.47e-19    2.09e-18    1.16e-14

Name:     m:x1:x1:4   m:x1:x1:3   m:x1:x1:2   m:x1:x1:1
Model:   x1:x1:cmosn x1:x1:cmosn x1:x1:cmosp x1:x1:cmosp
Id:        1.00e-11    1.00e-11    3.21e-12    3.21e-12
Vgs:       1.80e+00    1.80e+00    1.80e+00    1.80e+00
Vds:       2.89e-08    2.89e-08    1.80e+00    1.80e+00
Vbs:       0.00e+00   -2.89e-08    1.80e+00    1.80e+00
Vth:       3.75e-01    3.75e-01   -3.92e-01   -3.92e-01
Vdsat:     1.11e+00    1.11e+00   -3.31e-02   -3.31e-02
Gm:        4.02e-12    4.02e-12    8.42e-11    8.42e-11
Gds:       3.48e-04    3.48e-04    3.13e-13    3.13e-13
Gmb        2.77e-12    2.77e-12    3.13e-11    3.13e-11
Cbd:       0.00e+00    0.00e+00    0.00e+00    0.00e+00
Cbs:       0.00e+00    0.00e+00    0.00e+00    0.00e+00
Cgsov:     4.12e-15    4.12e-15    3.18e-15    3.18e-15
Cgdov:     4.12e-15    4.12e-15    3.18e-15    3.18e-15
Cgbov:     4.97e-18    4.97e-18    4.94e-18    4.94e-18
dQgdVgb:   2.18e-13    2.18e-13    6.25e-14    6.25e-14
dQgdVdb:  -1.06e-13   -1.06e-13   -3.17e-15   -3.17e-15
dQgdVsb:  -1.12e-13   -1.12e-13   -3.18e-15   -3.18e-15
dQddVgb:  -1.09e-13   -1.09e-13   -3.18e-15   -3.18e-15
dQddVdb:   9.45e-14    9.45e-14    3.17e-15    3.17e-15
dQddVsb:   4.74e-14    4.74e-14    3.15e-18    3.15e-18
dQbdVgb:  -4.05e-16   -4.05e-16   -5.62e-14   -5.62e-14
dQbdVdb:  -7.89e-14   -7.89e-14    1.85e-21    1.85e-21
dQbdVsb:   1.28e-14    1.28e-14    7.67e-19    7.67e-19



Date: Thu May 20 16:32:45 2021
Total elapsed time: 0.338 seconds.

tnom = 27
temp = 27
method = trap
totiter = 408
traniter = 0
tranpoints = 0
accept = 0
rejected = 0
matrix size = 98
fillins = 54
solver = Normal

