Circuit: * C:\Users\sahar\Documents\LTspiceXVII\Task1.asc

Direct Newton iteration for .op point succeeded.
Changing Tseed to 7.8125e-015
Changing Tseed to 7.8125e-017

Date: Thu May 20 16:30:26 2021
Total elapsed time: 0.192 seconds.

tnom = 27
temp = 27
method = modified trap
totiter = 4712
traniter = 4700
tranpoints = 1949
accept = 1732
rejected = 215
matrix size = 12
fillins = 0
solver = Normal
Matrix Compiler1: 608 bytes object code size  0.2/0.1/[0.0]
Matrix Compiler2: 1.16 KB object code size  0.2/0.2/[0.1]

