Circuit: * C:\Users\sahar\Documents\LTspiceXVII\TASK2_NAND.asc

Ignoring BSIM parameter XL
Ignoring BSIM parameter XW
Ignoring BSIM parameter XL
Ignoring BSIM parameter XW
Warning: Pd = 0 is less than W.
Warning: Ps = 0 is less than W.
Warning: Pd = 0 is less than W.
Warning: Ps = 0 is less than W.
Direct Newton iteration for .op point succeeded.

Date: Thu May 20 16:14:35 2021
Total elapsed time: 0.298 seconds.

tnom = 27
temp = 27
method = modified trap
totiter = 6171
traniter = 6163
tranpoints = 2269
accept = 2083
rejected = 186
matrix size = 8
fillins = 0
solver = Normal
Matrix Compiler1: 282 bytes object code size  0.1/0.1/[0.0]
Matrix Compiler2: 642 bytes object code size  0.1/0.1/[0.1]

